[General]
record-eventlog = false
**.vector-recording=false
network = hnocs.topologies.Mesh

# Select Component Types
**.routerType = "hnocs.routers.hier.Router"
**.coreType   = "hnocs.cores.NI"
**.sourceType = "hnocs.cores.sources.PktFifoSrc"
**.sinkType   = "hnocs.cores.sinks.InfiniteBWMultiVCSink"
**.portType   = "hnocs.routers.hier.Port"
**.inPortType = "hnocs.routers.hier.inPort.InPortSync"
**.OPCalcType = "hnocs.routers.hier.opCalc.static.XYOPCalc"
**.VCCalcType = "hnocs.routers.hier.vcCalc.free.FLUVCCalc"
**.schedType  = "hnocs.routers.hier.sched.wormhole.SchedSync"

sim-time-limit = 2ms

# Global Parameters
**.numVCs = 2
**.flitSize = 4B
**.rows = 8
**.columns = 8
**.statStartTime = 1us # when to start 

# Source Parameters
**.source.pktVC = 0  # the VC injecting the packet on from the NI 
**.source.msgLen = 4 # packets per message
**.source.pktLen = 8 # in flits
**.source.isSynchronous = false # inject flits without any synchronization to clock
**.source.isTrace = false  # do not inject based on trace file
**.source.fileName = ""    # no trace file given
**.source.flitArrivalDelay = 2ns  # 1 flit / Cycle
**.source.maxQueuedPkts = 16
**.source.dstId = (id + intuniform(1, 63)) % 64 # Uniform random thar prevent self dst 

# Sink Parameters
# all params are global 

# In Port Parameters
**.inPort.collectPerHopWait = false # Controls per hop wait time collection
**.inPort.flitsPerVC = 4

# OPCalc
# No parameters

# VCCalc
# No parameters

# Sched Parameters
**.sched.arbitration_type = 0 # if 1 allow sending Gnt on next Req while waiting for complted Req Acks
**.sched.freeRunningClk = false # if true the clk is free running else it depends on activity
**.heterogeneous = false # indicates whther the NoC is heterogeneous
**.givenTclk = false # indicates whther tClk is detemined automatically by the link BW or defined by the ini parameters
**.tClk = 2ns